$ NASTRAN input file created by the Patran 2012.2.1 64-Bit input file
$ translator on March     02, 2015 at 19:56:35.
$ Direct Text Input for Nastran System Cell Section
$ Direct Text Input for File Management Section
$ Direct Text Input for Executive Control
$ Normal Modes Analysis, Database
ASSIGN OUTPUT4='kgg.dat' STATUS=UNKNOWN UNIT=11 FORM=FORMATTED
$ Normal Modes Analysis, Database
$ COMPILER LIST $
SOL 103
$ COMPILE SEMODES SOUIN=MSCSOU LIST NOREF $
$ ALTER 95 $
$ MATGEN EQEXINS/INTEXT/9//LUSETS $
$ MPYAD INTEXT,KGG,/KGGE/1 $
$ MPYAD KGGE,INTEXT,/K3GG $
$ OUTPUT4 K3GG//-1/11/2 $
$ ENDALTER
CEND 
$ Direct Text Input for Global Case Control Data
TITLE = MSC.Nastran job created on 02-Mar-15 at 19:50:12
ECHO = NONE
$ Using Nastran default values for RESVEC
SUBCASE 1
$ Subcase name : Default
   SUBTITLE=Default
   METHOD = 1
   $VECTOR(SORT1,REAL)=ALL
   SPCFORCES(SORT1,REAL)=ALL
   DISP(PUNCH)=ALL
BEGIN BULK
$ Direct Text Input for Bulk Data
PARAM    POST    0
PARAM   PRTMAXIM YES
$PARAM,EXTOUT,matrixpch
PARAM   COUPMASS 1
EIGRL    1                       10      0
EIGR     101    MGIV                            10
         MASS
GRDSET           0                                       126
SUPORT,10,345
$ Elements and Element Properties for region : beam
PBAR*    1               1              .002            1.66667-6
*       6.66667-8       2.33071-7
        .05     .01     -.05    .01     -.05    -.01    .05     -.01
        .833333 .833333  0.
$ Pset: "beam" will be imported as: "pbar.1"
CBAR     1       1       1       2       0.      0.     1.
CBAR     22      1       2      10       0.      0.     1.
CBAR     23      1       10      3       0.      0.     1.
CBAR     3       1       3       4       0.      0.     1.
CBAR     4       1       5       6       0.      0.     1.
CBAR     5       1       6       7       0.      0.     1.
CBAR     6       1       7       8       0.      0.     1.
CBAR     7       1       8       9       0.      0.     1.
CBAR     8       1       9       10      0.      0.     1.
CBAR     9       1       10      12      0.      0.     1.
CBAR     10      1       12      13      0.      0.     1.
CBAR     11      1       13      14      0.      0.     1.
CBAR     12      1       14      15      0.      0.     1.
CBAR     13      1       15      16      0.      0.     1.
$ Referenced Material Records
$ Material Record : aluminum
$ Description of Material : Date: 02-Mar-15           Time: 19:48:11
MAT1     1      7.+10           .3      2800.
$ Nodes of the Entire Model
GRID     1              -3.      0.      0.
GRID*    2                              -.99999994039535 0.
*        0.
GRID*    3                              1.00000011920929 0.
*        0.
GRID     4              3.       0.      0.
GRID     5              2.      10.      0.
GRID*    6                              1.600000023841868.
*        0.
GRID*    7                              1.200000047683726.
*        0.
GRID*    8                              .7999999523162843.99999976158142
*        0.
GRID*    9                              .3999999761581421.99999988079071
*        0.
GRID     10              0.      0.      0.
GRID*    12                             .399999976158142-1.9999998807907
*        0.
GRID*    13                             .799999952316284-3.9999997615814
*        0.
GRID*    14                             1.20000004768372-6.
*        0.
GRID*    15                             1.60000002384186-8.
*        0.
GRID     16             2.      -10.     0.
$ Loads for Load Case : Default
$ Referenced Coordinate Frames
ENDDATA 2c68af9a
